Circuit: * C:\users\rodrigo\¡rea de Trabalho\LOBI\TCC\Circuito\Controle_do_motor\Draft1.asc

Direct Newton iteration for .op point succeeded.

Date: Thu Jun 04 23:37:43 2026
Total elapsed time: 0.027 seconds.

tnom = 27
temp = 27
method = modified trap
totiter = 6027
traniter = 6024
tranpoints = 3013
accept = 2930
rejected = 83
matrix size = 3
fillins = 0
solver = Normal
Matrix Compiler1: 86 bytes object code size  0.1/0.1/[0.1]
Matrix Compiler2: 163 bytes object code size  0.1/0.1/[0.1]

